 # Bcc SnO alloy oriented X=[100] Y=[010] Z=[001].
 CRYSTAL
 PRIMVEC
      4.73100000        0.00000000        0.00000000
      0.00000000        4.73100000        0.00000000
      0.00000000        0.00000000        3.18900000
 CONVVEC
      4.73100000        0.00000000        0.00000000
      0.00000000        4.73100000        0.00000000
      0.00000000        0.00000000        3.18900000
 PRIMCOORD
        6 1
50        0.00000000        0.00000000        0.00000000
50        2.36550000        2.36550000        1.59450000
8        1.41930000        1.41930000        0.00000000
8        3.78480000        0.94620000        1.59450000
8        0.94620000        3.78480000        1.59450000
8        3.31169000        3.31169000        0.00000000
